**
*HEADING
**
**
**
**
*NODE
1,	15.0,	0.0,	0.0
2,	14.942920471376183,	1.3073361412148725,	0.0
3,	14.772116295183121,	2.6047226650039548,	0.0
4,	14.488887394336025,	3.882285676537811,	0.0
5,	14.095389311788626,	5.130302149885031,	0.0
6,	13.59461680554975,	6.339273926110492,	0.0
7,	12.99038105676658,	7.499999999999999,	0.0
8,	12.287280664334878,	8.60364654526569,	0.0
9,	11.49066664678467,	9.641814145298088,	0.0
10,	10.606601717798213,	10.606601717798213,	0.0
11,	9.64181414529809,	11.49066664678467,	0.0
12,	8.60364654526569,	12.287280664334878,	0.0
13,	7.500000000000002,	12.990381056766578,	0.0
14,	6.339273926110492,	13.59461680554975,	0.0
15,	5.130302149885033,	14.095389311788624,	0.0
16,	3.882285676537811,	14.488887394336025,	0.0
17,	2.604722665003956,	14.772116295183121,	0.0
18,	1.3073361412148754,	14.942920471376183,	0.0
19,	9.18485099360515e-16,	15.0,	0.0
20,	-1.3073361412148703,	14.942920471376183,	0.0
** ... 25686 like lines cut
**
** SOLID ELEMENTS
**
*ELEMENT, TYPE=C3D8H, ELSET=SOLID_RUBBER
434,	434,	506,	507,	435,	1658,	1730,	1731,	1659
435,	435,	507,	508,	436,	1659,	1731,	1732,	1660
436,	436,	508,	509,	437,	1660,	1732,	1733,	1661
437,	437,	509,	510,	438,	1661,	1733,	1734,	1662
438,	438,	510,	511,	439,	1662,	1734,	1735,	1663
439,	439,	511,	512,	440,	1663,	1735,	1736,	1664
462,	462,	534,	535,	463,	1686,	1758,	1759,	1687
463,	463,	535,	536,	464,	1687,	1759,	1760,	1688
464,	464,	536,	537,	465,	1688,	1760,	1761,	1689
465,	465,	537,	538,	466,	1689,	1761,	1762,	1690
466,	466,	538,	539,	467,	1690,	1762,	1763,	1691
467,	467,	539,	540,	468,	1691,	1763,	1764,	1692
470,	470,	542,	543,	471,	1694,	1766,	1767,	1695
471,	471,	543,	544,	472,	1695,	1767,	1768,	1696
472,	472,	544,	545,	473,	1696,	1768,	1769,	1697
473,	473,	545,	546,	474,	1697,	1769,	1770,	1698
474,	474,	546,	547,	475,	1698,	1770,	1771,	1699
475,	475,	547,	548,	476,	1699,	1771,	1772,	1700
498,	498,	570,	571,	499,	1722,	1794,	1795,	1723
499,	499,	571,	572,	500,	1723,	1795,	1796,	1724
** ... 4460 like lines cut
*ELEMENT, TYPE=C3D8, ELSET=SOLID_METAL
1081,	1081,	1153,	1154,	1082,	2305,	2377,	2378,	2306
1082,	1082,	1154,	1155,	1083,	2306,	2378,	2379,	2307
1083,	1083,	1155,	1156,	1084,	2307,	2379,	2380,	2308
1084,	1084,	1156,	1157,	1085,	2308,	2380,	2381,	2309
1085,	1085,	1157,	1158,	1086,	2309,	2381,	2382,	2310
1086,	1086,	1158,	1159,	1087,	2310,	2382,	2383,	2311
1087,	1087,	1159,	1160,	1088,	2311,	2383,	2384,	2312
1088,	1088,	1160,	1161,	1089,	2312,	2384,	2385,	2313
1089,	1089,	1161,	1162,	1090,	2313,	2385,	2386,	2314
1090,	1090,	1162,	1163,	1091,	2314,	2386,	2387,	2315
1091,	1091,	1163,	1164,	1092,	2315,	2387,	2388,	2316
1092,	1092,	1164,	1165,	1093,	2316,	2388,	2389,	2317
1093,	1093,	1165,	1166,	1094,	2317,	2389,	2390,	2318
1094,	1094,	1166,	1167,	1095,	2318,	2390,	2391,	2319
1095,	1095,	1167,	1168,	1096,	2319,	2391,	2392,	2320
1096,	1096,	1168,	1169,	1097,	2320,	2392,	2393,	2321
1097,	1097,	1169,	1170,	1098,	2321,	2393,	2394,	2322
1098,	1098,	1170,	1171,	1099,	2322,	2394,	2395,	2323
1099,	1099,	1171,	1172,	1100,	2323,	2395,	2396,	2324
1100,	1100,	1172,	1173,	1101,	2324,	2396,	2397,	2325
** ... 10060 like lines cut
**
** 
**
**
** MPC
**
*MPC
BEAM,        1,    25705
BEAM,        2,    25705
BEAM,        3,    25705
BEAM,        4,    25705
BEAM,        5,    25705
BEAM,        6,    25705
BEAM,        7,    25705
BEAM,        8,    25705
BEAM,        9,    25705
BEAM,       10,    25705
BEAM,       11,    25705
BEAM,       12,    25705
BEAM,       13,    25705
BEAM,       14,    25705
BEAM,       15,    25705
BEAM,       16,    25705
BEAM,       17,    25705
BEAM,       18,    25705
BEAM,       19,    25705
BEAM,       20,    25705
** ... 1492 like lines cut
*MPC
BEAM,     1153,    25706
BEAM,     1154,    25706
BEAM,     1155,    25706
BEAM,     1156,    25706
BEAM,     1157,    25706
BEAM,     1158,    25706
BEAM,     1159,    25706
BEAM,     1160,    25706
BEAM,     1161,    25706
BEAM,     1162,    25706
BEAM,     1163,    25706
BEAM,     1164,    25706
BEAM,     1165,    25706
BEAM,     1166,    25706
BEAM,     1167,    25706
BEAM,     1168,    25706
BEAM,     1169,    25706
BEAM,     1170,    25706
BEAM,     1171,    25706
BEAM,     1172,    25706
** ... 1492 like lines cut
**
** 
**
**
** SECTION DATA
**
*SOLID SECTION, ELSET=SOLID_RUBBER, MATERIAL=RUBBER
*SOLID SECTION, ELSET=SOLID_METAL, MATERIAL=METAL
**
** MATERIALS
**
**
**METAL
**
*MATERIAL, NAME=METAL
*DENSITY
                 7.85E-9,
*ELASTIC, TYPE=ISOTROPIC
                 210000.,                      0.3
**
**
**RUBBER
**
*MATERIAL, NAME=RUBBER
*DENSITY
                  1.2E-9,
*ELASTIC, TYPE=ISOTROPIC
                     2.5,                    0.495
** 
**
** 
** SETS
** 
*NSET, NSET=SET_LOAD_NODE
   25705,
*NSET, NSET=SET_BC_NODE
   25706,
**
** STEPS
**
**
** STEP 1
**
*STEP, NAME=Load_X_direction, NLGEOM=YES
*STATIC
                      1.,                       1.,                      0.1,                       1.
**
** BOUNDARY
**
*BOUNDARY, TYPE=DISPLACEMENT, OP=NEW
SET_LOAD_NODE,        1,         ,                      0.2
SET_LOAD_NODE,        2,        6,                       0.
SET_BC_NODE,        1,        6,                       0.
*OUTPUT, FIELD
*ELEMENT OUTPUT
NE,
S,
*NODE OUTPUT
U,
*NODE PRINT, FREQUENCY=100, NSET=SET_LOAD_NODE
RF1,
*EL PRINT, FREQUENCY=100
NE,
*END STEP
**
** STEP 2
**
*STEP, NAME=Load_Y_direction, NLGEOM=YES
*STATIC
                      1.,                       1.,                      0.1,                       1.
**
** BOUNDARY
**
*BOUNDARY, TYPE=DISPLACEMENT, OP=NEW
SET_LOAD_NODE,        1,         ,                      0
SET_LOAD_NODE,        2,        ,                       0.2
SET_LOAD_NODE,        3,        6,                       0.
SET_BC_NODE,        1,        6,                       0.
*OUTPUT, FIELD
*ELEMENT OUTPUT
NE,
S,
*NODE OUTPUT
U,
*NODE PRINT, FREQUENCY=100, NSET=SET_LOAD_NODE
RF2,
*EL PRINT, FREQUENCY=100
NE,
*END STEP
**
** STEP 3
**
*STEP, NAME=Load_Z_direction, NLGEOM=YES
*STATIC
                      1.,                       1.,                      0.1,                       1.
**
** BOUNDARY
**
*BOUNDARY, TYPE=DISPLACEMENT, OP=NEW
SET_LOAD_NODE,        1,         2,                      0
SET_LOAD_NODE,        3,        ,                       0.2
SET_LOAD_NODE,        4,        6,                       0.
SET_BC_NODE,        1,        6,                       0.
*OUTPUT, FIELD
*ELEMENT OUTPUT
NE,
S,
*NODE OUTPUT
U,
*NODE PRINT, FREQUENCY=100, NSET=SET_LOAD_NODE
RF3,
*EL PRINT, FREQUENCY=100
NE,
*END STEP